12
in Angstrom
C         0.000000       1.391618       0.000000
C         1.205176      -0.695809       0.000000
C         1.205176       0.695809       0.000000
C         0.000000      -1.391618       0.000000
C        -1.205176       0.695809       0.000000
C        -1.205176      -0.695809       0.000000
H        -2.140418      -1.235771       0.000000
H        -2.140418       1.235771       0.000000
H         0.000000      -2.471541       0.000000
H         2.140418      -1.235771       0.000000
H         2.140418       1.235771       0.000000
H         0.000000       2.471541       0.000000
